<?xml version="1.0" encoding="UTF-8"?>

<!-- generated on 2022-03-19 20:16:15 by Eclipse SUMO netedit Version 1.10.0
<configuration xmlns:xsi="http://www.w3.org/2001/XMLSchema-instance" xsi:noNamespaceSchemaLocation="http://sumo.dlr.de/xsd/netconvertConfiguration.xsd">

    <input>
        <sumo-net-file value="F:\大学\MTFwiki\sumo_learn_project\sumo_learn_project\sumo-cross\cross.net.xml"/>
    </input>

    <output>
        <output-file value="F:\大学\MTFwiki\sumo_learn_project\sumo_learn_project\sumo-cross\cross.net.xml"/>
    </output>

    <processing>
        <geometry.min-radius.fix.railways value="false"/>
        <geometry.max-grade.fix value="false"/>
        <offset.disable-normalization value="true"/>
        <lefthand value="false"/>
    </processing>

    <junctions>
        <no-turnarounds value="true"/>
        <junctions.corner-detail value="5"/>
        <junctions.limit-turn-speed value="5.5"/>
        <rectangular-lane-cut value="false"/>
    </junctions>

    <pedestrian>
        <walkingareas value="false"/>
    </pedestrian>

    <report>
        <aggregate-warnings value="5"/>
    </report>

</configuration>
-->

<net version="1.9" junctionCornerDetail="5" limitTurnSpeed="5.50" xmlns:xsi="http://www.w3.org/2001/XMLSchema-instance" xsi:noNamespaceSchemaLocation="http://sumo.dlr.de/xsd/net_file.xsd">

    <location netOffset="0.00,0.00" convBoundary="-197.14,-150.00,150.00,150.00" origBoundary="-10000000000.00,-10000000000.00,10000000000.00,10000000000.00" projParameter="!"/>

    <edge id=":gneJ0_0" function="internal">
        <lane id=":gneJ0_0_0" index="0" speed="13.89" length="8.60" shape="-46.00,8.00 -48.46,8.50 -50.00,9.60 -51.54,10.70 -54.00,11.20"/>
        <lane id=":gneJ0_0_1" index="1" speed="13.89" length="8.60" shape="-46.00,4.80 -48.46,5.30 -50.00,6.40 -51.54,7.50 -54.00,8.00"/>
        <lane id=":gneJ0_0_2" index="2" speed="13.89" length="8.60" shape="-46.00,1.60 -48.46,2.10 -50.00,3.20 -51.54,4.30 -54.00,4.80"/>
        <lane id=":gneJ0_0_3" index="3" speed="13.89" length="8.60" shape="-46.00,1.60 -54.00,1.60"/>
    </edge>
    <edge id=":gneJ0_4" function="internal">
        <lane id=":gneJ0_4_0" index="0" speed="13.89" length="8.64" shape="-54.00,-11.20 -51.54,-11.70 -50.00,-12.80 -48.46,-13.90 -46.00,-14.40"/>
        <lane id=":gneJ0_4_1" index="1" speed="13.89" length="8.64" shape="-54.00,-8.00 -51.54,-8.50 -50.00,-9.60 -48.46,-10.70 -46.00,-11.20"/>
        <lane id=":gneJ0_4_2" index="2" speed="13.89" length="8.64" shape="-54.00,-4.80 -51.54,-5.30 -50.00,-6.40 -48.46,-7.50 -46.00,-8.00"/>
        <lane id=":gneJ0_4_3" index="3" speed="13.89" length="8.64" shape="-54.00,-1.60 -51.54,-2.10 -50.00,-3.20 -48.46,-4.30 -46.00,-4.80"/>
        <lane id=":gneJ0_4_4" index="4" speed="13.89" length="8.64" shape="-54.00,-1.60 -46.00,-1.60"/>
    </edge>
    <edge id=":gneJ1_0" function="internal">
        <lane id=":gneJ1_0_0" index="0" speed="13.89" length="8.64" shape="54.00,11.20 51.54,11.70 50.00,12.80 48.46,13.90 46.00,14.40"/>
        <lane id=":gneJ1_0_1" index="1" speed="13.89" length="8.64" shape="54.00,8.00 51.54,8.50 50.00,9.60 48.46,10.70 46.00,11.20"/>
        <lane id=":gneJ1_0_2" index="2" speed="13.89" length="8.64" shape="54.00,4.80 51.54,5.30 50.00,6.40 48.46,7.50 46.00,8.00"/>
        <lane id=":gneJ1_0_3" index="3" speed="13.89" length="8.64" shape="54.00,1.60 51.54,2.10 50.00,3.20 48.46,4.30 46.00,4.80"/>
        <lane id=":gneJ1_0_4" index="4" speed="13.89" length="8.64" shape="54.00,1.60 46.00,1.60"/>
    </edge>
    <edge id=":gneJ1_5" function="internal">
        <lane id=":gneJ1_5_0" index="0" speed="13.89" length="8.60" shape="46.00,-8.00 48.46,-8.50 50.00,-9.60 51.54,-10.70 54.00,-11.20"/>
        <lane id=":gneJ1_5_1" index="1" speed="13.89" length="8.60" shape="46.00,-4.80 48.46,-5.30 50.00,-6.40 51.54,-7.50 54.00,-8.00"/>
        <lane id=":gneJ1_5_2" index="2" speed="13.89" length="8.60" shape="46.00,-1.60 48.46,-2.10 50.00,-3.20 51.54,-4.30 54.00,-4.80"/>
        <lane id=":gneJ1_5_3" index="3" speed="13.89" length="8.60" shape="46.00,-1.60 54.00,-1.60"/>
    </edge>
    <edge id=":gneJ2_0" function="internal">
        <lane id=":gneJ2_0_0" index="0" speed="13.89" length="8.64" shape="-11.20,54.00 -11.70,51.54 -12.80,50.00 -13.90,48.46 -14.40,46.00"/>
        <lane id=":gneJ2_0_1" index="1" speed="13.89" length="8.64" shape="-8.00,54.00 -8.50,51.54 -9.60,50.00 -10.70,48.46 -11.20,46.00"/>
        <lane id=":gneJ2_0_2" index="2" speed="13.89" length="8.64" shape="-4.80,54.00 -5.30,51.54 -6.40,50.00 -7.50,48.46 -8.00,46.00"/>
        <lane id=":gneJ2_0_3" index="3" speed="13.89" length="8.64" shape="-1.60,54.00 -2.10,51.54 -3.20,50.00 -4.30,48.46 -4.80,46.00"/>
        <lane id=":gneJ2_0_4" index="4" speed="13.89" length="8.64" shape="-1.60,54.00 -1.60,46.00"/>
    </edge>
    <edge id=":gneJ2_5" function="internal">
        <lane id=":gneJ2_5_0" index="0" speed="13.89" length="8.60" shape="8.00,46.00 8.50,48.46 9.60,50.00 10.70,51.54 11.20,54.00"/>
        <lane id=":gneJ2_5_1" index="1" speed="13.89" length="8.60" shape="4.80,46.00 5.30,48.46 6.40,50.00 7.50,51.54 8.00,54.00"/>
        <lane id=":gneJ2_5_2" index="2" speed="13.89" length="8.60" shape="1.60,46.00 2.10,48.46 3.20,50.00 4.30,51.54 4.80,54.00"/>
        <lane id=":gneJ2_5_3" index="3" speed="13.89" length="8.60" shape="1.60,46.00 1.60,54.00"/>
    </edge>
    <edge id=":gneJ21_0" function="internal">
        <lane id=":gneJ21_0_0" index="0" speed="13.89" length="8.20" shape="-8.00,-46.00 -8.50,-48.46 -9.60,-50.00 -10.70,-51.54 -11.20,-54.00"/>
        <lane id=":gneJ21_0_1" index="1" speed="13.89" length="8.20" shape="-8.00,-46.00 -8.00,-54.00"/>
        <lane id=":gneJ21_0_2" index="2" speed="13.89" length="8.20" shape="-4.80,-46.00 -4.80,-54.00"/>
        <lane id=":gneJ21_0_3" index="3" speed="13.89" length="8.20" shape="-1.60,-46.00 -1.60,-54.00"/>
    </edge>
    <edge id=":gneJ21_4" function="internal">
        <lane id=":gneJ21_4_0" index="0" speed="13.89" length="8.32" shape="11.20,-54.00 11.70,-51.54 12.80,-50.00 13.90,-48.46 14.40,-46.00"/>
        <lane id=":gneJ21_4_1" index="1" speed="13.89" length="8.32" shape="8.00,-54.00 8.50,-51.54 9.60,-50.00 10.70,-48.46 11.20,-46.00"/>
        <lane id=":gneJ21_4_2" index="2" speed="13.89" length="8.32" shape="8.00,-54.00 8.00,-46.00"/>
        <lane id=":gneJ21_4_3" index="3" speed="13.89" length="8.32" shape="4.80,-54.00 4.80,-46.00"/>
        <lane id=":gneJ21_4_4" index="4" speed="13.89" length="8.32" shape="1.60,-54.00 1.60,-46.00"/>
    </edge>
    <edge id=":gneJ6_0" function="internal">
        <lane id=":gneJ6_0_0" index="0" speed="13.05" length="39.46" shape="-14.40,38.82 -15.49,25.34 -18.74,15.71 -24.17,9.93 -31.77,8.00"/>
        <lane id=":gneJ6_0_1" index="1" speed="13.48" length="42.20" shape="-14.40,38.82 -15.48,23.94 -18.70,13.31 -24.08,6.93 -31.61,4.80"/>
    </edge>
    <edge id=":gneJ6_2" function="internal">
        <lane id=":gneJ6_2_0" index="0" speed="13.89" length="67.64" shape="-11.20,38.79 -8.00,-29.01"/>
        <lane id=":gneJ6_2_1" index="1" speed="13.89" length="67.64" shape="-8.00,38.75 -4.80,-28.81"/>
        <lane id=":gneJ6_2_2" index="2" speed="13.89" length="67.64" shape="-4.80,38.71 -1.60,-28.62"/>
    </edge>
    <edge id=":gneJ6_5" function="internal">
        <lane id=":gneJ6_5_0" index="0" speed="13.89" length="21.60" shape="-1.60,38.67 0.13,19.65 1.02,17.32"/>
        <lane id=":gneJ6_5_1" index="1" speed="13.89" length="19.74" shape="-1.60,38.67 0.15,21.05 0.93,19.17"/>
    </edge>
    <edge id=":gneJ6_26" function="internal">
        <lane id=":gneJ6_26_0" index="0" speed="13.89" length="36.32" shape="1.02,17.32 5.31,6.07 13.95,-2.08 26.05,-4.80"/>
    </edge>
    <edge id=":gneJ6_27" function="internal">
        <lane id=":gneJ6_27_0" index="0" speed="13.89" length="35.63" shape="0.93,19.17 5.39,8.47 14.12,0.92 26.35,-1.60"/>
    </edge>
    <edge id=":gneJ6_7" function="internal">
        <lane id=":gneJ6_7_0" index="0" speed="12.40" length="35.58" shape="27.88,14.40 19.18,15.91 12.97,20.44 9.24,27.99 8.00,38.56"/>
    </edge>
    <edge id=":gneJ6_8" function="internal">
        <lane id=":gneJ6_8_0" index="0" speed="13.89" length="58.97" shape="27.57,11.20 -31.77,8.00"/>
        <lane id=":gneJ6_8_1" index="1" speed="13.89" length="58.97" shape="27.27,8.00 -31.61,4.80"/>
        <lane id=":gneJ6_8_2" index="2" speed="13.89" length="58.97" shape="26.96,4.80 -31.46,1.60"/>
    </edge>
    <edge id=":gneJ6_11" function="internal">
        <lane id=":gneJ6_11_0" index="0" speed="13.89" length="14.87" shape="26.66,1.60 12.89,-0.30 12.04,-0.79"/>
        <lane id=":gneJ6_11_1" index="1" speed="13.89" length="13.28" shape="26.66,1.60 14.29,-0.29 13.65,-0.70"/>
    </edge>
    <edge id=":gneJ6_28" function="internal">
        <lane id=":gneJ6_28_0" index="0" speed="13.89" length="35.02" shape="12.04,-0.79 3.06,-6.00 -2.83,-15.51 -4.80,-28.81"/>
    </edge>
    <edge id=":gneJ6_29" function="internal">
        <lane id=":gneJ6_29_0" index="0" speed="13.89" length="33.89" shape="13.65,-0.70 5.46,-5.95 0.17,-15.40 -1.60,-28.62"/>
    </edge>
    <edge id=":gneJ6_13" function="internal">
        <lane id=":gneJ6_13_0" index="0" speed="10.53" length="25.33" shape="14.40,-27.63 15.11,-19.04 17.23,-12.91 20.78,-9.23 25.74,-8.00"/>
    </edge>
    <edge id=":gneJ6_14" function="internal">
        <lane id=":gneJ6_14_0" index="0" speed="13.89" length="66.70" shape="11.20,-27.83 8.00,38.56"/>
        <lane id=":gneJ6_14_1" index="1" speed="13.89" length="66.70" shape="8.00,-28.03 4.80,38.59"/>
        <lane id=":gneJ6_14_2" index="2" speed="13.89" length="66.70" shape="4.80,-28.22 1.60,38.63"/>
    </edge>
    <edge id=":gneJ6_17" function="internal">
        <lane id=":gneJ6_17_0" index="0" speed="13.89" length="15.15" shape="1.60,-28.42 -0.48,-13.89 -0.72,-13.48"/>
        <lane id=":gneJ6_17_1" index="1" speed="13.89" length="13.62" shape="1.60,-28.42 -0.47,-15.29 -0.64,-15.02"/>
    </edge>
    <edge id=":gneJ6_30" function="internal">
        <lane id=":gneJ6_30_0" index="0" speed="13.89" length="38.42" shape="-0.72,-13.48 -6.70,-3.51 -17.08,2.72 -31.61,4.80"/>
    </edge>
    <edge id=":gneJ6_31" function="internal">
        <lane id=":gneJ6_31_0" index="0" speed="13.89" length="37.27" shape="-0.64,-15.02 -6.66,-5.91 -16.99,-0.28 -31.46,1.60"/>
    </edge>
    <edge id=":gneJ6_19" function="internal">
        <lane id=":gneJ6_19_0" index="0" speed="11.49" length="30.35" shape="-30.68,-14.40 -20.76,-15.31 -13.67,-18.05 -9.42,-22.62 -8.00,-29.01"/>
        <lane id=":gneJ6_19_1" index="1" speed="11.96" length="33.02" shape="-30.68,-14.40 -19.36,-15.30 -11.27,-18.00 -6.42,-22.51 -4.80,-28.81"/>
    </edge>
    <edge id=":gneJ6_21" function="internal">
        <lane id=":gneJ6_21_0" index="0" speed="13.89" length="57.12" shape="-30.83,-11.20 25.74,-8.00"/>
        <lane id=":gneJ6_21_1" index="1" speed="13.89" length="57.12" shape="-30.99,-8.00 26.05,-4.80"/>
        <lane id=":gneJ6_21_2" index="2" speed="13.89" length="57.12" shape="-31.14,-4.80 26.35,-1.60"/>
    </edge>
    <edge id=":gneJ6_24" function="internal">
        <lane id=":gneJ6_24_0" index="0" speed="13.89" length="15.60" shape="-31.30,-1.60 -15.90,0.85"/>
        <lane id=":gneJ6_24_1" index="1" speed="13.89" length="13.60" shape="-31.30,-1.60 -17.91,0.74"/>
    </edge>
    <edge id=":gneJ6_32" function="internal">
        <lane id=":gneJ6_32_0" index="0" speed="13.89" length="45.96" shape="-15.90,0.85 -15.51,0.91 -4.23,8.45 2.54,21.01 4.80,38.59"/>
    </edge>
    <edge id=":gneJ6_33" function="internal">
        <lane id=":gneJ6_33_0" index="0" speed="13.89" length="45.49" shape="-17.91,0.74 -16.91,0.91 -6.63,8.46 -0.46,21.03 1.60,38.63"/>
    </edge>

    <edge id="-s1" from="gneJ2" to="gneJ16" priority="-1">
        <lane id="-s1_0" index="0" speed="13.89" length="96.00" shape="11.20,54.00 11.20,150.00"/>
        <lane id="-s1_1" index="1" speed="13.89" length="96.00" shape="8.00,54.00 8.00,150.00"/>
        <lane id="-s1_2" index="2" speed="13.89" length="96.00" shape="4.80,54.00 4.80,150.00"/>
        <lane id="-s1_3" index="3" speed="13.89" length="96.00" shape="1.60,54.00 1.60,150.00"/>
    </edge>
    <edge id="-s2" from="gneJ6" to="gneJ2" priority="-1">
        <lane id="-s2_0" index="0" speed="13.89" length="7.41" shape="8.00,38.56 8.00,46.00"/>
        <lane id="-s2_1" index="1" speed="13.89" length="7.41" shape="4.80,38.59 4.80,46.00"/>
        <lane id="-s2_2" index="2" speed="13.89" length="7.41" shape="1.60,38.63 1.60,46.00"/>
    </edge>
    <edge id="-x1" from="gneJ21" to="gneJ22" priority="-1">
        <lane id="-x1_0" index="0" speed="13.89" length="96.00" shape="-11.20,-54.00 -11.20,-150.00"/>
        <lane id="-x1_1" index="1" speed="13.89" length="96.00" shape="-8.00,-54.00 -8.00,-150.00"/>
        <lane id="-x1_2" index="2" speed="13.89" length="96.00" shape="-4.80,-54.00 -4.80,-150.00"/>
        <lane id="-x1_3" index="3" speed="13.89" length="96.00" shape="-1.60,-54.00 -1.60,-150.00"/>
    </edge>
    <edge id="-x2" from="gneJ6" to="gneJ21" priority="-1">
        <lane id="-x2_0" index="0" speed="13.89" length="17.19" shape="-8.00,-29.01 -8.00,-46.00"/>
        <lane id="-x2_1" index="1" speed="13.89" length="17.19" shape="-4.80,-28.81 -4.80,-46.00"/>
        <lane id="-x2_2" index="2" speed="13.89" length="17.19" shape="-1.60,-28.62 -1.60,-46.00"/>
    </edge>
    <edge id="-y1" from="gneJ1" to="gneJ12" priority="-1">
        <lane id="-y1_0" index="0" speed="13.89" length="96.00" shape="54.00,-11.20 150.00,-11.20"/>
        <lane id="-y1_1" index="1" speed="13.89" length="96.00" shape="54.00,-8.00 150.00,-8.00"/>
        <lane id="-y1_2" index="2" speed="13.89" length="96.00" shape="54.00,-4.80 150.00,-4.80"/>
        <lane id="-y1_3" index="3" speed="13.89" length="96.00" shape="54.00,-1.60 150.00,-1.60"/>
    </edge>
    <edge id="-y2" from="gneJ6" to="gneJ1" priority="-1">
        <lane id="-y2_0" index="0" speed="13.89" length="19.95" shape="25.74,-8.00 46.00,-8.00"/>
        <lane id="-y2_1" index="1" speed="13.89" length="19.95" shape="26.05,-4.80 46.00,-4.80"/>
        <lane id="-y2_2" index="2" speed="13.89" length="19.95" shape="26.35,-1.60 46.00,-1.60"/>
    </edge>
    <edge id="-z1" from="gneJ0" to="gneJ11" priority="-1">
        <lane id="-z1_0" index="0" speed="13.89" length="143.14" shape="-54.00,11.20 -197.14,11.20"/>
        <lane id="-z1_1" index="1" speed="13.89" length="143.14" shape="-54.00,8.00 -197.14,8.00"/>
        <lane id="-z1_2" index="2" speed="13.89" length="143.14" shape="-54.00,4.80 -197.14,4.80"/>
        <lane id="-z1_3" index="3" speed="13.89" length="143.14" shape="-54.00,1.60 -197.14,1.60"/>
    </edge>
    <edge id="-z2" from="gneJ6" to="gneJ0" priority="-1">
        <lane id="-z2_0" index="0" speed="13.89" length="14.39" shape="-31.77,8.00 -46.00,8.00"/>
        <lane id="-z2_1" index="1" speed="13.89" length="14.39" shape="-31.61,4.80 -46.00,4.80"/>
        <lane id="-z2_2" index="2" speed="13.89" length="14.39" shape="-31.46,1.60 -46.00,1.60"/>
    </edge>
    <edge id="s1" from="gneJ16" to="gneJ2" priority="-1">
        <lane id="s1_0" index="0" speed="13.89" length="96.00" shape="-11.20,150.00 -11.20,54.00"/>
        <lane id="s1_1" index="1" speed="13.89" length="96.00" shape="-8.00,150.00 -8.00,54.00"/>
        <lane id="s1_2" index="2" speed="13.89" length="96.00" shape="-4.80,150.00 -4.80,54.00"/>
        <lane id="s1_3" index="3" speed="13.89" length="96.00" shape="-1.60,150.00 -1.60,54.00"/>
    </edge>
    <edge id="s2" from="gneJ2" to="gneJ6" priority="-1">
        <lane id="s2_0" index="0" speed="13.89" length="7.25" shape="-14.40,46.00 -14.40,38.82"/>
        <lane id="s2_1" index="1" speed="13.89" length="7.25" shape="-11.20,46.00 -11.20,38.79"/>
        <lane id="s2_2" index="2" speed="13.89" length="7.25" shape="-8.00,46.00 -8.00,38.75"/>
        <lane id="s2_3" index="3" speed="13.89" length="7.25" shape="-4.80,46.00 -4.80,38.71"/>
        <lane id="s2_4" index="4" speed="13.89" length="7.25" shape="-1.60,46.00 -1.60,38.67"/>
    </edge>
    <edge id="x1" from="gneJ22" to="gneJ21" priority="-1">
        <lane id="x1_0" index="0" speed="13.89" length="96.00" shape="11.20,-150.00 11.20,-54.00"/>
        <lane id="x1_1" index="1" speed="13.89" length="96.00" shape="8.00,-150.00 8.00,-54.00"/>
        <lane id="x1_2" index="2" speed="13.89" length="96.00" shape="4.80,-150.00 4.80,-54.00"/>
        <lane id="x1_3" index="3" speed="13.89" length="96.00" shape="1.60,-150.00 1.60,-54.00"/>
    </edge>
    <edge id="x2" from="gneJ21" to="gneJ6" priority="-1">
        <lane id="x2_0" index="0" speed="13.89" length="17.97" shape="14.40,-46.00 14.40,-27.63"/>
        <lane id="x2_1" index="1" speed="13.89" length="17.97" shape="11.20,-46.00 11.20,-27.83"/>
        <lane id="x2_2" index="2" speed="13.89" length="17.97" shape="8.00,-46.00 8.00,-28.03"/>
        <lane id="x2_3" index="3" speed="13.89" length="17.97" shape="4.80,-46.00 4.80,-28.22"/>
        <lane id="x2_4" index="4" speed="13.89" length="17.97" shape="1.60,-46.00 1.60,-28.42"/>
    </edge>
    <edge id="y1" from="gneJ12" to="gneJ1" priority="-1">
        <lane id="y1_0" index="0" speed="13.89" length="96.00" shape="150.00,11.20 54.00,11.20"/>
        <lane id="y1_1" index="1" speed="13.89" length="96.00" shape="150.00,8.00 54.00,8.00"/>
        <lane id="y1_2" index="2" speed="13.89" length="96.00" shape="150.00,4.80 54.00,4.80"/>
        <lane id="y1_3" index="3" speed="13.89" length="96.00" shape="150.00,1.60 54.00,1.60"/>
    </edge>
    <edge id="y2" from="gneJ1" to="gneJ6" priority="-1">
        <lane id="y2_0" index="0" speed="13.89" length="18.73" shape="46.00,14.40 27.88,14.40"/>
        <lane id="y2_1" index="1" speed="13.89" length="18.73" shape="46.00,11.20 27.57,11.20"/>
        <lane id="y2_2" index="2" speed="13.89" length="18.73" shape="46.00,8.00 27.27,8.00"/>
        <lane id="y2_3" index="3" speed="13.89" length="18.73" shape="46.00,4.80 26.96,4.80"/>
        <lane id="y2_4" index="4" speed="13.89" length="18.73" shape="46.00,1.60 26.66,1.60"/>
    </edge>
    <edge id="z1" from="gneJ11" to="gneJ0" priority="-1">
        <lane id="z1_0" index="0" speed="13.89" length="143.14" shape="-197.14,-11.20 -54.00,-11.20"/>
        <lane id="z1_1" index="1" speed="13.89" length="143.14" shape="-197.14,-8.00 -54.00,-8.00"/>
        <lane id="z1_2" index="2" speed="13.89" length="143.14" shape="-197.14,-4.80 -54.00,-4.80"/>
        <lane id="z1_3" index="3" speed="13.89" length="143.14" shape="-197.14,-1.60 -54.00,-1.60"/>
    </edge>
    <edge id="z2" from="gneJ0" to="gneJ6" priority="-1">
        <lane id="z2_0" index="0" speed="13.89" length="15.01" shape="-46.00,-14.40 -30.68,-14.40"/>
        <lane id="z2_1" index="1" speed="13.89" length="15.01" shape="-46.00,-11.20 -30.83,-11.20"/>
        <lane id="z2_2" index="2" speed="13.89" length="15.01" shape="-46.00,-8.00 -30.99,-8.00"/>
        <lane id="z2_3" index="3" speed="13.89" length="15.01" shape="-46.00,-4.80 -31.14,-4.80"/>
        <lane id="z2_4" index="4" speed="13.89" length="15.01" shape="-46.00,-1.60 -31.30,-1.60"/>
    </edge>

    <tlLogic id="gneJ6" type="static" programID="0" offset="0">
        <phase duration="33" state="GGGGGggsrrrrrGGGGggssrrrrr"/>
        <phase duration="3"  state="yyyyyggsrrrrryyyyggssrrrrr"/>
        <phase duration="6"  state="rrrrrGGsrrrrrrrrrGGssrrrrr"/>
        <phase duration="3"  state="rrrrryysrrrrrrrrryyssrrrrr"/>
        <phase duration="33" state="ssrrrrrGGGGggsrrrrrGGGGGgg"/>
        <phase duration="3"  state="ssrrrrryyyyggsrrrrryyyyygg"/>
        <phase duration="6"  state="ssrrrrrrrrrGGsrrrrrrrrrrGG"/>
        <phase duration="3"  state="ssrrrrrrrrryysrrrrrrrrrryy"/>
    </tlLogic>

    <junction id="gneJ0" type="priority" x="-50.00" y="0.00" incLanes="-z2_0 -z2_1 -z2_2 z1_0 z1_1 z1_2 z1_3" intLanes=":gneJ0_0_0 :gneJ0_0_1 :gneJ0_0_2 :gneJ0_0_3 :gneJ0_4_0 :gneJ0_4_1 :gneJ0_4_2 :gneJ0_4_3 :gneJ0_4_4" shape="-46.00,9.60 -46.00,-16.00 -49.03,-15.17 -50.97,-13.63 -52.21,-13.04 -54.00,-12.80 -54.00,12.80 -50.97,11.97 -49.03,10.43 -47.79,9.84">
        <request index="0" response="000000000" foes="000000000" cont="0"/>
        <request index="1" response="000000000" foes="000000000" cont="0"/>
        <request index="2" response="000000000" foes="000000000" cont="0"/>
        <request index="3" response="000000000" foes="000000000" cont="0"/>
        <request index="4" response="000000000" foes="000000000" cont="0"/>
        <request index="5" response="000000000" foes="000000000" cont="0"/>
        <request index="6" response="000000000" foes="000000000" cont="0"/>
        <request index="7" response="000000000" foes="000000000" cont="0"/>
        <request index="8" response="000000000" foes="000000000" cont="0"/>
    </junction>
    <junction id="gneJ1" type="priority" x="50.00" y="0.00" incLanes="y1_0 y1_1 y1_2 y1_3 -y2_0 -y2_1 -y2_2" intLanes=":gneJ1_0_0 :gneJ1_0_1 :gneJ1_0_2 :gneJ1_0_3 :gneJ1_0_4 :gneJ1_5_0 :gneJ1_5_1 :gneJ1_5_2 :gneJ1_5_3" shape="54.00,12.80 54.00,-12.80 50.97,-11.97 49.03,-10.43 47.79,-9.84 46.00,-9.60 46.00,16.00 49.03,15.17 50.97,13.63 52.21,13.04">
        <request index="0" response="000000000" foes="000000000" cont="0"/>
        <request index="1" response="000000000" foes="000000000" cont="0"/>
        <request index="2" response="000000000" foes="000000000" cont="0"/>
        <request index="3" response="000000000" foes="000000000" cont="0"/>
        <request index="4" response="000000000" foes="000000000" cont="0"/>
        <request index="5" response="000000000" foes="000000000" cont="0"/>
        <request index="6" response="000000000" foes="000000000" cont="0"/>
        <request index="7" response="000000000" foes="000000000" cont="0"/>
        <request index="8" response="000000000" foes="000000000" cont="0"/>
    </junction>
    <junction id="gneJ11" type="dead_end" x="-197.14" y="0.00" incLanes="-z1_0 -z1_1 -z1_2 -z1_3" intLanes="" shape="-197.14,0.00 -197.14,12.80 -197.14,0.00"/>
    <junction id="gneJ12" type="dead_end" x="150.00" y="0.00" incLanes="-y1_0 -y1_1 -y1_2 -y1_3" intLanes="" shape="150.00,0.00 150.00,-12.80 150.00,0.00"/>
    <junction id="gneJ16" type="dead_end" x="0.00" y="150.00" incLanes="-s1_0 -s1_1 -s1_2 -s1_3" intLanes="" shape="0.00,150.00 12.80,150.00 0.00,150.00"/>
    <junction id="gneJ2" type="priority" x="0.00" y="50.00" incLanes="s1_0 s1_1 s1_2 s1_3 -s2_0 -s2_1 -s2_2" intLanes=":gneJ2_0_0 :gneJ2_0_1 :gneJ2_0_2 :gneJ2_0_3 :gneJ2_0_4 :gneJ2_5_0 :gneJ2_5_1 :gneJ2_5_2 :gneJ2_5_3" shape="-12.80,54.00 12.80,54.00 11.97,50.97 10.43,49.03 9.84,47.79 9.60,46.00 -16.00,46.00 -15.17,49.03 -13.63,50.97 -13.04,52.21">
        <request index="0" response="000000000" foes="000000000" cont="0"/>
        <request index="1" response="000000000" foes="000000000" cont="0"/>
        <request index="2" response="000000000" foes="000000000" cont="0"/>
        <request index="3" response="000000000" foes="000000000" cont="0"/>
        <request index="4" response="000000000" foes="000000000" cont="0"/>
        <request index="5" response="000000000" foes="000000000" cont="0"/>
        <request index="6" response="000000000" foes="000000000" cont="0"/>
        <request index="7" response="000000000" foes="000000000" cont="0"/>
        <request index="8" response="000000000" foes="000000000" cont="0"/>
    </junction>
    <junction id="gneJ21" type="priority" x="0.00" y="-50.00" incLanes="-x2_0 -x2_1 -x2_2 x1_0 x1_1 x1_2 x1_3" intLanes=":gneJ21_0_0 :gneJ21_0_1 :gneJ21_0_2 :gneJ21_0_3 :gneJ21_4_0 :gneJ21_4_1 :gneJ21_4_2 :gneJ21_4_3 :gneJ21_4_4" shape="-9.60,-46.00 16.00,-46.00 15.17,-49.03 13.63,-50.97 13.04,-52.21 12.80,-54.00 -12.80,-54.00 -11.97,-50.97 -10.43,-49.03 -9.84,-47.79">
        <request index="0" response="000000000" foes="000000000" cont="0"/>
        <request index="1" response="000000000" foes="000000000" cont="0"/>
        <request index="2" response="000000000" foes="000000000" cont="0"/>
        <request index="3" response="000000000" foes="000000000" cont="0"/>
        <request index="4" response="000000000" foes="000000000" cont="0"/>
        <request index="5" response="000000000" foes="000000000" cont="0"/>
        <request index="6" response="000000000" foes="000000000" cont="0"/>
        <request index="7" response="000000000" foes="000000000" cont="0"/>
        <request index="8" response="000000000" foes="000000000" cont="0"/>
    </junction>
    <junction id="gneJ22" type="dead_end" x="0.00" y="-150.00" incLanes="-x1_0 -x1_1 -x1_2 -x1_3" intLanes="" shape="0.00,-150.00 -12.80,-150.00 0.00,-150.00"/>
    <junction id="gneJ6" type="traffic_light_right_on_red" x="0.00" y="0.00" incLanes="s2_0 s2_1 s2_2 s2_3 s2_4 y2_0 y2_1 y2_2 y2_3 y2_4 x2_0 x2_1 x2_2 x2_3 x2_4 z2_0 z2_1 z2_2 z2_3 z2_4" intLanes=":gneJ6_0_0 :gneJ6_0_1 :gneJ6_2_0 :gneJ6_2_1 :gneJ6_2_2 :gneJ6_26_0 :gneJ6_27_0 :gneJ6_7_0 :gneJ6_8_0 :gneJ6_8_1 :gneJ6_8_2 :gneJ6_28_0 :gneJ6_29_0 :gneJ6_13_0 :gneJ6_14_0 :gneJ6_14_1 :gneJ6_14_2 :gneJ6_30_0 :gneJ6_31_0 :gneJ6_19_0 :gneJ6_19_1 :gneJ6_21_0 :gneJ6_21_1 :gneJ6_21_2 :gneJ6_32_0 :gneJ6_33_0" shape="-15.77,38.84 9.41,38.54 10.76,17.78 14.22,16.44 16.82,16.11 28.01,15.77 25.64,-9.04 17.78,-10.76 16.44,-14.22 16.11,-16.82 15.55,-27.56 -9.91,-29.13 -10.76,-17.78 -14.22,-16.44 -16.82,-16.11 -30.60,-16.00 -31.85,9.71 -17.78,10.76 -16.44,14.22 -16.11,16.82" customShape="1">
        <request index="0"  response="00000000000000011100000000" foes="00000001100000011100000000" cont="0"/>
        <request index="1"  response="00000000000000011100000000" foes="00000001100000011100000000" cont="0"/>
        <request index="2"  response="11000000000001100000000000" foes="11111111100001111100000000" cont="0"/>
        <request index="3"  response="11000000000001100000000000" foes="11111111100001111100000000" cont="0"/>
        <request index="4"  response="11000000000001100000000000" foes="11111111100001111100000000" cont="0"/>
        <request index="5"  response="11000000011101100000000000" foes="11111000011101111100000000" cont="1"/>
        <request index="6"  response="11000000011101100000000000" foes="11111000011101111100000000" cont="1"/>
        <request index="7"  response="00000000011100000000000000" foes="00000000011100000000000000" cont="0"/>
        <request index="8"  response="00000001111100000001111111" foes="11000001111100000001111111" cont="0"/>
        <request index="9"  response="00000001111100000001111111" foes="11000001111100000001111111" cont="0"/>
        <request index="10" response="00000001111100000001111111" foes="11000001111100000001111111" cont="0"/>
        <request index="11" response="00111111111100000001111100" foes="00111111111100000001111100" cont="1"/>
        <request index="12" response="00111111111100000001111100" foes="00111111111100000001111100" cont="1"/>
        <request index="13" response="00111000000000000000000000" foes="00111000000000000000000000" cont="0"/>
        <request index="14" response="11000000000001100000000000" foes="11111000000001111111100000" cont="0"/>
        <request index="15" response="11000000000001100000000000" foes="11111000000001111111100000" cont="0"/>
        <request index="16" response="11000000000001100000000000" foes="11111000000001111111100000" cont="0"/>
        <request index="17" response="11000000000001100000011111" foes="11111000000001111100011111" cont="1"/>
        <request index="18" response="11000000000001100000011111" foes="11111000000001111100011111" cont="1"/>
        <request index="19" response="00000000000000000000011100" foes="00000000000001100000011100" cont="0"/>
        <request index="20" response="00000000000000000000011100" foes="00000000000001100000011100" cont="0"/>
        <request index="21" response="00000001111110000001111100" foes="00000001111111100001111100" cont="0"/>
        <request index="22" response="00000001111110000001111100" foes="00000001111111100001111100" cont="0"/>
        <request index="23" response="00000001111110000001111100" foes="00000001111111100001111100" cont="0"/>
        <request index="24" response="00000001111100011101111100" foes="00000001111100011101111100" cont="1"/>
        <request index="25" response="00000001111100011101111100" foes="00000001111100011101111100" cont="1"/>
    </junction>

    <junction id=":gneJ6_26_0" type="internal" x="1.02" y="17.32" incLanes=":gneJ6_5_0 x2_0 x2_1 x2_2 x2_3" intLanes=":gneJ6_8_0 :gneJ6_8_1 :gneJ6_8_2 :gneJ6_11_0 :gneJ6_11_1 :gneJ6_13_0 :gneJ6_14_0 :gneJ6_14_1 :gneJ6_14_2 :gneJ6_21_0 :gneJ6_21_1 :gneJ6_21_2 :gneJ6_24_0 :gneJ6_24_1"/>
    <junction id=":gneJ6_27_0" type="internal" x="0.93" y="19.17" incLanes=":gneJ6_5_1 x2_0 x2_1 x2_2 x2_3" intLanes=":gneJ6_8_0 :gneJ6_8_1 :gneJ6_8_2 :gneJ6_11_0 :gneJ6_11_1 :gneJ6_13_0 :gneJ6_14_0 :gneJ6_14_1 :gneJ6_14_2 :gneJ6_21_0 :gneJ6_21_1 :gneJ6_21_2 :gneJ6_24_0 :gneJ6_24_1"/>
    <junction id=":gneJ6_28_0" type="internal" x="12.04" y="-0.79" incLanes=":gneJ6_11_0 z2_0 z2_1 z2_2 z2_3" intLanes=":gneJ6_2_0 :gneJ6_2_1 :gneJ6_2_2 :gneJ6_5_0 :gneJ6_5_1 :gneJ6_14_0 :gneJ6_14_1 :gneJ6_14_2 :gneJ6_17_0 :gneJ6_17_1 :gneJ6_19_0 :gneJ6_19_1 :gneJ6_21_0 :gneJ6_21_1 :gneJ6_21_2"/>
    <junction id=":gneJ6_29_0" type="internal" x="13.65" y="-0.70" incLanes=":gneJ6_11_1 z2_0 z2_1 z2_2 z2_3" intLanes=":gneJ6_2_0 :gneJ6_2_1 :gneJ6_2_2 :gneJ6_5_0 :gneJ6_5_1 :gneJ6_14_0 :gneJ6_14_1 :gneJ6_14_2 :gneJ6_17_0 :gneJ6_17_1 :gneJ6_19_0 :gneJ6_19_1 :gneJ6_21_0 :gneJ6_21_1 :gneJ6_21_2"/>
    <junction id=":gneJ6_30_0" type="internal" x="-0.72" y="-13.48" incLanes=":gneJ6_17_0 s2_0 s2_1 s2_2 s2_3" intLanes=":gneJ6_0_0 :gneJ6_0_1 :gneJ6_2_0 :gneJ6_2_1 :gneJ6_2_2 :gneJ6_8_0 :gneJ6_8_1 :gneJ6_8_2 :gneJ6_11_0 :gneJ6_11_1 :gneJ6_21_0 :gneJ6_21_1 :gneJ6_21_2 :gneJ6_24_0 :gneJ6_24_1"/>