<?xml version="1.0" encoding="UTF-8"?>

<!-- generated on 2021-11-20 21:23:44 by Eclipse SUMO netedit Version 1.10.0
<configuration xmlns:xsi="http://www.w3.org/2001/XMLSchema-instance" xsi:noNamespaceSchemaLocation="http://sumo.dlr.de/xsd/netconvertConfiguration.xsd">

    <input>
        <sumo-net-file value="F:\大学\MTFwiki\sumo_learn_project\sumo_learn_project\sumo-cross\cross.net.xml"/>
    </input>

    <output>
        <output-file value="F:\大学\MTFwiki\sumo_learn_project\sumo_learn_project\sumo-cross\cross.net.xml"/>
    </output>

    <processing>
        <geometry.min-radius.fix.railways value="false"/>
        <geometry.max-grade.fix value="false"/>
        <offset.disable-normalization value="true"/>
        <lefthand value="false"/>
    </processing>

    <junctions>
        <no-turnarounds value="true"/>
        <junctions.corner-detail value="5"/>
        <junctions.limit-turn-speed value="5.5"/>
        <rectangular-lane-cut value="false"/>
    </junctions>

    <pedestrian>
        <walkingareas value="false"/>
    </pedestrian>

    <report>
        <aggregate-warnings value="5"/>
    </report>

</configuration>
-->

<net version="1.9" junctionCornerDetail="5" limitTurnSpeed="5.50" xmlns:xsi="http://www.w3.org/2001/XMLSchema-instance" xsi:noNamespaceSchemaLocation="http://sumo.dlr.de/xsd/net_file.xsd">

    <location netOffset="0.00,0.00" convBoundary="-197.14,-150.00,150.00,150.00" origBoundary="-10000000000.00,-10000000000.00,10000000000.00,10000000000.00" projParameter="!"/>

    <edge id=":gneJ0_0" function="internal">
        <lane id=":gneJ0_0_0" index="0" speed="13.89" length="8.60" shape="-46.00,8.00 -48.46,8.50 -50.00,9.60 -51.54,10.70 -54.00,11.20"/>
        <lane id=":gneJ0_0_1" index="1" speed="13.89" length="8.60" shape="-46.00,4.80 -48.46,5.30 -50.00,6.40 -51.54,7.50 -54.00,8.00"/>
        <lane id=":gneJ0_0_2" index="2" speed="13.89" length="8.60" shape="-46.00,1.60 -48.46,2.10 -50.00,3.20 -51.54,4.30 -54.00,4.80"/>
        <lane id=":gneJ0_0_3" index="3" speed="13.89" length="8.60" shape="-46.00,1.60 -54.00,1.60"/>
    </edge>
    <edge id=":gneJ0_4" function="internal">
        <lane id=":gneJ0_4_0" index="0" speed="13.89" length="8.64" shape="-54.00,-11.20 -51.54,-11.70 -50.00,-12.80 -48.46,-13.90 -46.00,-14.40"/>
        <lane id=":gneJ0_4_1" index="1" speed="13.89" length="8.64" shape="-54.00,-8.00 -51.54,-8.50 -50.00,-9.60 -48.46,-10.70 -46.00,-11.20"/>
        <lane id=":gneJ0_4_2" index="2" speed="13.89" length="8.64" shape="-54.00,-4.80 -51.54,-5.30 -50.00,-6.40 -48.46,-7.50 -46.00,-8.00"/>
        <lane id=":gneJ0_4_3" index="3" speed="13.89" length="8.64" shape="-54.00,-1.60 -51.54,-2.10 -50.00,-3.20 -48.46,-4.30 -46.00,-4.80"/>
        <lane id=":gneJ0_4_4" index="4" speed="13.89" length="8.64" shape="-54.00,-1.60 -46.00,-1.60"/>
    </edge>
    <edge id=":gneJ1_0" function="internal">
        <lane id=":gneJ1_0_0" index="0" speed="13.89" length="8.64" shape="54.00,11.20 51.54,11.70 50.00,12.80 48.46,13.90 46.00,14.40"/>
        <lane id=":gneJ1_0_1" index="1" speed="13.89" length="8.64" shape="54.00,8.00 51.54,8.50 50.00,9.60 48.46,10.70 46.00,11.20"/>
        <lane id=":gneJ1_0_2" index="2" speed="13.89" length="8.64" shape="54.00,4.80 51.54,5.30 50.00,6.40 48.46,7.50 46.00,8.00"/>
        <lane id=":gneJ1_0_3" index="3" speed="13.89" length="8.64" shape="54.00,1.60 51.54,2.10 50.00,3.20 48.46,4.30 46.00,4.80"/>
        <lane id=":gneJ1_0_4" index="4" speed="13.89" length="8.64" shape="54.00,1.60 46.00,1.60"/>
    </edge>
    <edge id=":gneJ1_5" function="internal">
        <lane id=":gneJ1_5_0" index="0" speed="13.89" length="8.60" shape="46.00,-8.00 48.46,-8.50 50.00,-9.60 51.54,-10.70 54.00,-11.20"/>
        <lane id=":gneJ1_5_1" index="1" speed="13.89" length="8.60" shape="46.00,-4.80 48.46,-5.30 50.00,-6.40 51.54,-7.50 54.00,-8.00"/>
        <lane id=":gneJ1_5_2" index="2" speed="13.89" length="8.60" shape="46.00,-1.60 48.46,-2.10 50.00,-3.20 51.54,-4.30 54.00,-4.80"/>
        <lane id=":gneJ1_5_3" index="3" speed="13.89" length="8.60" shape="46.00,-1.60 54.00,-1.60"/>
    </edge>
    <edge id=":gneJ2_0" function="internal">
        <lane id=":gneJ2_0_0" index="0" speed="13.89" length="8.64" shape="-11.20,54.00 -11.70,51.54 -12.80,50.00 -13.90,48.46 -14.40,46.00"/>
        <lane id=":gneJ2_0_1" index="1" speed="13.89" length="8.64" shape="-8.00,54.00 -8.50,51.54 -9.60,50.00 -10.70,48.46 -11.20,46.00"/>
        <lane id=":gneJ2_0_2" index="2" speed="13.89" length="8.64" shape="-4.80,54.00 -5.30,51.54 -6.40,50.00 -7.50,48.46 -8.00,46.00"/>
        <lane id=":gneJ2_0_3" index="3" speed="13.89" length="8.64" shape="-1.60,54.00 -2.10,51.54 -3.20,50.00 -4.30,48.46 -4.80,46.00"/>
        <lane id=":gneJ2_0_4" index="4" speed="13.89" length="8.64" shape="-1.60,54.00 -1.60,46.00"/>
    </edge>
    <edge id=":gneJ2_5" function="internal">
        <lane id=":gneJ2_5_0" index="0" speed="13.89" length="8.60" shape="8.00,46.00 8.50,48.46 9.60,50.00 10.70,51.54 11.20,54.00"/>
        <lane id=":gneJ2_5_1" index="1" speed="13.89" length="8.60" shape="4.80,46.00 5.30,48.46 6.40,50.00 7.50,51.54 8.00,54.00"/>
        <lane id=":gneJ2_5_2" index="2" speed="13.89" length="8.60" shape="1.60,46.00 2.10,48.46 3.20,50.00 4.30,51.54 4.80,54.00"/>
        <lane id=":gneJ2_5_3" index="3" speed="13.89" length="8.60" shape="1.60,46.00 1.60,54.00"/>
    </edge>
    <edge id=":gneJ21_0" function="internal">
        <lane id=":gneJ21_0_0" index="0" speed="13.89" length="8.20" shape="-8.00,-46.00 -8.50,-48.46 -9.60,-50.00 -10.70,-51.54 -11.20,-54.00"/>
        <lane id=":gneJ21_0_1" index="1" speed="13.89" length="8.20" shape="-8.00,-46.00 -8.00,-54.00"/>
        <lane id=":gneJ21_0_2" index="2" speed="13.89" length="8.20" shape="-4.80,-46.00 -4.80,-54.00"/>
        <lane id=":gneJ21_0_3" index="3" speed="13.89" length="8.20" shape="-1.60,-46.00 -1.60,-54.00"/>
    </edge>
    <edge id=":gneJ21_4" function="internal">
        <lane id=":gneJ21_4_0" index="0" speed="13.89" length="8.32" shape="11.20,-54.00 11.70,-51.54 12.80,-50.00 13.90,-48.46 14.40,-46.00"/>
        <lane id=":gneJ21_4_1" index="1" speed="13.89" length="8.32" shape="8.00,-54.00 8.50,-51.54 9.60,-50.00 10.70,-48.46 11.20,-46.00"/>
        <lane id=":gneJ21_4_2" index="2" speed="13.89" length="8.32" shape="8.00,-54.00 8.00,-46.00"/>
        <lane id=":gneJ21_4_3" index="3" speed="13.89" length="8.32" shape="4.80,-54.00 4.80,-46.00"/>
        <lane id=":gneJ21_4_4" index="4" speed="13.89" length="8.32" shape="1.60,-54.00 1.60,-46.00"/>
    </edge>
    <edge id=":gneJ6_0" function="internal">
        <lane id=":gneJ6_0_0" index="0" speed="8.10" length="14.57" shape="-14.40,20.00 -14.75,14.75 -15.80,11.00 -17.55,8.75 -20.00,8.00"/>
        <lane id=":gneJ6_0_1" index="1" speed="8.83" length="17.50" shape="-14.40,20.00 -14.75,13.35 -15.80,8.60 -17.55,5.75 -20.00,4.80"/>
    </edge>
    <edge id=":gneJ6_2" function="internal">
        <lane id=":gneJ6_2_0" index="0" speed="13.89" length="40.13" shape="-11.20,20.00 -8.00,-20.00"/>
        <lane id=":gneJ6_2_1" index="1" speed="13.89" length="40.13" shape="-8.00,20.00 -4.80,-20.00"/>
        <lane id=":gneJ6_2_2" index="2" speed="13.89" length="40.13" shape="-4.80,20.00 -1.60,-20.00"/>
    </edge>
    <edge id=":gneJ6_5" function="internal">
        <lane id=":gneJ6_5_0" index="0" speed="12.72" length="13.77" shape="-1.60,20.00 -0.25,9.15 1.06,6.64"/>
        <lane id=":gneJ6_5_1" index="1" speed="12.28" length="11.79" shape="-1.60,20.00 -0.25,10.55 0.90,8.63"/>
    </edge>
    <edge id=":gneJ6_26" function="internal">
        <lane id=":gneJ6_26_0" index="0" speed="12.72" length="23.68" shape="1.06,6.64 3.80,1.40 10.55,-3.25 20.00,-4.80"/>
    </edge>
    <edge id=":gneJ6_27" function="internal">
        <lane id=":gneJ6_27_0" index="0" speed="12.28" length="23.04" shape="0.90,8.63 3.80,3.80 10.55,-0.25 20.00,-1.60"/>
    </edge>
    <edge id=":gneJ6_7" function="internal">
        <lane id=":gneJ6_7_0" index="0" speed="8.10" length="14.57" shape="20.00,14.40 14.75,14.75 11.00,15.80 8.75,17.55 8.00,20.00"/>
    </edge>
    <edge id=":gneJ6_8" function="internal">
        <lane id=":gneJ6_8_0" index="0" speed="13.89" length="40.13" shape="20.00,11.20 -20.00,8.00"/>
        <lane id=":gneJ6_8_1" index="1" speed="13.89" length="40.13" shape="20.00,8.00 -20.00,4.80"/>
        <lane id=":gneJ6_8_2" index="2" speed="13.89" length="40.13" shape="20.00,4.80 -20.00,1.60"/>
    </edge>
    <edge id=":gneJ6_11" function="internal">
        <lane id=":gneJ6_11_0" index="0" speed="12.72" length="13.77" shape="20.00,1.60 9.15,0.25 6.64,-1.06"/>
        <lane id=":gneJ6_11_1" index="1" speed="12.28" length="11.79" shape="20.00,1.60 10.55,0.25 8.63,-0.90"/>
    </edge>
    <edge id=":gneJ6_28" function="internal">
        <lane id=":gneJ6_28_0" index="0" speed="12.72" length="23.68" shape="6.64,-1.06 1.40,-3.80 -3.25,-10.55 -4.80,-20.00"/>
    </edge>
    <edge id=":gneJ6_29" function="internal">
        <lane id=":gneJ6_29_0" index="0" speed="12.28" length="23.04" shape="8.63,-0.90 3.80,-3.80 -0.25,-10.55 -1.60,-20.00"/>
    </edge>
    <edge id=":gneJ6_13" function="internal">
        <lane id=":gneJ6_13_0" index="0" speed="8.10" length="14.57" shape="14.40,-20.00 14.75,-14.75 15.80,-11.00 17.55,-8.75 20.00,-8.00"/>
    </edge>
    <edge id=":gneJ6_14" function="internal">
        <lane id=":gneJ6_14_0" index="0" speed="13.89" length="40.13" shape="11.20,-20.00 8.00,20.00"/>
        <lane id=":gneJ6_14_1" index="1" speed="13.89" length="40.13" shape="8.00,-20.00 4.80,20.00"/>
        <lane id=":gneJ6_14_2" index="2" speed="13.89" length="40.13" shape="4.80,-20.00 1.60,20.00"/>
    </edge>
    <edge id=":gneJ6_17" function="internal">
        <lane id=":gneJ6_17_0" index="0" speed="12.72" length="13.77" shape="1.60,-20.00 0.25,-9.15 -1.06,-6.64"/>
        <lane id=":gneJ6_17_1" index="1" speed="12.28" length="11.79" shape="1.60,-20.00 0.25,-10.55 -0.90,-8.63"/>
    </edge>
    <edge id=":gneJ6_30" function="internal">
        <lane id=":gneJ6_30_0" index="0" speed="12.72" length="23.68" shape="-1.06,-6.64 -3.80,-1.40 -10.55,3.25 -20.00,4.80"/>
    </edge>
    <edge id=":gneJ6_31" function="internal">
        <lane id=":gneJ6_31_0" index="0" speed="12.28" length="23.04" shape="-0.90,-8.63 -3.80,-3.80 -10.55,0.25 -20.00,1.60"/>
    </edge>
    <edge id=":gneJ6_19" function="internal">
        <lane id=":gneJ6_19_0" index="0" speed="8.10" length="14.57" shape="-20.00,-14.40 -14.75,-14.75 -11.00,-15.80 -8.75,-17.55 -8.00,-20.00"/>
        <lane id=":gneJ6_19_1" index="1" speed="8.83" length="17.50" shape="-20.00,-14.40 -13.35,-14.75 -8.60,-15.80 -5.75,-17.55 -4.80,-20.00"/>
    </edge>
    <edge id=":gneJ6_21" function="internal">
        <lane id=":gneJ6_21_0" index="0" speed="13.89" length="40.13" shape="-20.00,-11.20 20.00,-8.00"/>
        <lane id=":gneJ6_21_1" index="1" speed="13.89" length="40.13" shape="-20.00,-8.00 20.00,-4.80"/>
        <lane id=":gneJ6_21_2" index="2" speed="13.89" length="40.13" shape="-20.00,-4.80 20.00,-1.60"/>
    </edge>
    <edge id=":gneJ6_24" function="internal">
        <lane id=":gneJ6_24_0" index="0" speed="12.72" length="13.77" shape="-20.00,-1.60 -9.15,-0.25 -6.64,1.06"/>
        <lane id=":gneJ6_24_1" index="1" speed="12.28" length="11.79" shape="-20.00,-1.60 -10.55,-0.25 -8.63,0.90"/>
    </edge>
    <edge id=":gneJ6_32" function="internal">
        <lane id=":gneJ6_32_0" index="0" speed="12.72" length="23.68" shape="-6.64,1.06 -1.40,3.80 3.25,10.55 4.80,20.00"/>
    </edge>
    <edge id=":gneJ6_33" function="internal">
        <lane id=":gneJ6_33_0" index="0" speed="12.28" length="23.04" shape="-8.63,0.90 -3.80,3.80 0.25,10.55 1.60,20.00"/>
    </edge>

    <edge id="-s1" from="gneJ2" to="gneJ16" priority="-1">
        <lane id="-s1_0" index="0" speed="13.89" length="96.00" shape="11.20,54.00 11.20,150.00"/>
        <lane id="-s1_1" index="1" speed="13.89" length="96.00" shape="8.00,54.00 8.00,150.00"/>
        <lane id="-s1_2" index="2" speed="13.89" length="96.00" shape="4.80,54.00 4.80,150.00"/>
        <lane id="-s1_3" index="3" speed="13.89" length="96.00" shape="1.60,54.00 1.60,150.00"/>
    </edge>
    <edge id="-s2" from="gneJ6" to="gneJ2" priority="-1">
        <lane id="-s2_0" index="0" speed="13.89" length="26.00" shape="8.00,20.00 8.00,46.00"/>
        <lane id="-s2_1" index="1" speed="13.89" length="26.00" shape="4.80,20.00 4.80,46.00"/>
        <lane id="-s2_2" index="2" speed="13.89" length="26.00" shape="1.60,20.00 1.60,46.00"/>
    </edge>
    <edge id="-x1" from="gneJ21" to="gneJ22" priority="-1">
        <lane id="-x1_0" index="0" speed="13.89" length="96.00" shape="-11.20,-54.00 -11.20,-150.00"/>
        <lane id="-x1_1" index="1" speed="13.89" length="96.00" shape="-8.00,-54.00 -8.00,-150.00"/>
        <lane id="-x1_2" index="2" speed="13.89" length="96.00" shape="-4.80,-54.00 -4.80,-150.00"/>
        <lane id="-x1_3" index="3" speed="13.89" length="96.00" shape="-1.60,-54.00 -1.60,-150.00"/>
    </edge>
    <edge id="-x2" from="gneJ6" to="gneJ21" priority="-1">
        <lane id="-x2_0" index="0" speed="13.89" length="26.00" shape="-8.00,-20.00 -8.00,-46.00"/>
        <lane id="-x2_1" index="1" speed="13.89" length="26.00" shape="-4.80,-20.00 -4.80,-46.00"/>
        <lane id="-x2_2" index="2" speed="13.89" length="26.00" shape="-1.60,-20.00 -1.60,-46.00"/>
    </edge>
    <edge id="-y1" from="gneJ1" to="gneJ12" priority="-1">
        <lane id="-y1_0" index="0" speed="13.89" length="96.00" shape="54.00,-11.20 150.00,-11.20"/>
        <lane id="-y1_1" index="1" speed="13.89" length="96.00" shape="54.00,-8.00 150.00,-8.00"/>
        <lane id="-y1_2" index="2" speed="13.89" length="96.00" shape="54.00,-4.80 150.00,-4.80"/>
        <lane id="-y1_3" index="3" speed="13.89" length="96.00" shape="54.00,-1.60 150.00,-1.60"/>
    </edge>
    <edge id="-y2" from="gneJ6" to="gneJ1" priority="-1">
        <lane id="-y2_0" index="0" speed="13.89" length="26.00" shape="20.00,-8.00 46.00,-8.00"/>
        <lane id="-y2_1" index="1" speed="13.89" length="26.00" shape="20.00,-4.80 46.00,-4.80"/>
        <lane id="-y2_2" index="2" speed="13.89" length="26.00" shape="20.00,-1.60 46.00,-1.60"/>
    </edge>
    <edge id="-z1" from="gneJ0" to="gneJ11" priority="-1">
        <lane id="-z1_0" index="0" speed="13.89" length="143.14" shape="-54.00,11.20 -197.14,11.20"/>
        <lane id="-z1_1" index="1" speed="13.89" length="143.14" shape="-54.00,8.00 -197.14,8.00"/>
        <lane id="-z1_2" index="2" speed="13.89" length="143.14" shape="-54.00,4.80 -197.14,4.80"/>
        <lane id="-z1_3" index="3" speed="13.89" length="143.14" shape="-54.00,1.60 -197.14,1.60"/>
    </edge>
    <edge id="-z2" from="gneJ6" to="gneJ0" priority="-1">
        <lane id="-z2_0" index="0" speed="13.89" length="26.00" shape="-20.00,8.00 -46.00,8.00"/>
        <lane id="-z2_1" index="1" speed="13.89" length="26.00" shape="-20.00,4.80 -46.00,4.80"/>
        <lane id="-z2_2" index="2" speed="13.89" length="26.00" shape="-20.00,1.60 -46.00,1.60"/>
    </edge>
    <edge id="s1" from="gneJ16" to="gneJ2" priority="-1">
        <lane id="s1_0" index="0" speed="13.89" length="96.00" shape="-11.20,150.00 -11.20,54.00"/>
        <lane id="s1_1" index="1" speed="13.89" length="96.00" shape="-8.00,150.00 -8.00,54.00"/>
        <lane id="s1_2" index="2" speed="13.89" length="96.00" shape="-4.80,150.00 -4.80,54.00"/>
        <lane id="s1_3" index="3" speed="13.89" length="96.00" shape="-1.60,150.00 -1.60,54.00"/>
    </edge>
    <edge id="s2" from="gneJ2" to="gneJ6" priority="-1">
        <lane id="s2_0" index="0" speed="13.89" length="26.00" shape="-14.40,46.00 -14.40,20.00"/>
        <lane id="s2_1" index="1" speed="13.89" length="26.00" shape="-11.20,46.00 -11.20,20.00"/>
        <lane id="s2_2" index="2" speed="13.89" length="26.00" shape="-8.00,46.00 -8.00,20.00"/>
        <lane id="s2_3" index="3" speed="13.89" length="26.00" shape="-4.80,46.00 -4.80,20.00"/>
        <lane id="s2_4" index="4" speed="13.89" length="26.00" shape="-1.60,46.00 -1.60,20.00"/>
    </edge>
    <edge id="x1" from="gneJ22" to="gneJ21" priority="-1">
        <lane id="x1_0" index="0" speed="13.89" length="96.00" shape="11.20,-150.00 11.20,-54.00"/>
        <lane id="x1_1" index="1" speed="13.89" length="96.00" shape="8.00,-150.00 8.00,-54.00"/>
        <lane id="x1_2" index="2" speed="13.89" length="96.00" shape="4.80,-150.00 4.80,-54.00"/>
        <lane id="x1_3" index="3" speed="13.89" length="96.00" shape="1.60,-150.00 1.60,-54.00"/>
    </edge>
    <edge id="x2" from="gneJ21" to="gneJ6" priority="-1">
        <lane id="x2_0" index="0" speed="13.89" length="26.00" shape="14.40,-46.00 14.40,-20.00"/>
        <lane id="x2_1" index="1" speed="13.89" length="26.00" shape="11.20,-46.00 11.20,-20.00"/>
        <lane id="x2_2" index="2" speed="13.89" length="26.00" shape="8.00,-46.00 8.00,-20.00"/>
        <lane id="x2_3" index="3" speed="13.89" length="26.00" shape="4.80,-46.00 4.80,-20.00"/>
        <lane id="x2_4" index="4" speed="13.89" length="26.00" shape="1.60,-46.00 1.60,-20.00"/>
    </edge>
    <edge id="y1" from="gneJ12" to="gneJ1" priority="-1">
        <lane id="y1_0" index="0" speed="13.89" length="96.00" shape="150.00,11.20 54.00,11.20"/>
        <lane id="y1_1" index="1" speed="13.89" length="96.00" shape="150.00,8.00 54.00,8.00"/>
        <lane id="y1_2" index="2" speed="13.89" length="96.00" shape="150.00,4.80 54.00,4.80"/>
        <lane id="y1_3" index="3" speed="13.89" length="96.00" shape="150.00,1.60 54.00,1.60"/>
    </edge>
    <edge id="y2" from="gneJ1" to="gneJ6" priority="-1">
        <lane id="y2_0" index="0" speed="13.89" length="26.00" shape="46.00,14.40 20.00,14.40"/>
        <lane id="y2_1" index="1" speed="13.89" length="26.00" shape="46.00,11.20 20.00,11.20"/>
        <lane id="y2_2" index="2" speed="13.89" length="26.00" shape="46.00,8.00 20.00,8.00"/>
        <lane id="y2_3" index="3" speed="13.89" length="26.00" shape="46.00,4.80 20.00,4.80"/>
        <lane id="y2_4" index="4" speed="13.89" length="26.00" shape="46.00,1.60 20.00,1.60"/>
    </edge>
    <edge id="z1" from="gneJ11" to="gneJ0" priority="-1">
        <lane id="z1_0" index="0" speed="13.89" length="143.14" shape="-197.14,-11.20 -54.00,-11.20"/>
        <lane id="z1_1" index="1" speed="13.89" length="143.14" shape="-197.14,-8.00 -54.00,-8.00"/>
        <lane id="z1_2" index="2" speed="13.89" length="143.14" shape="-197.14,-4.80 -54.00,-4.80"/>
        <lane id="z1_3" index="3" speed="13.89" length="143.14" shape="-197.14,-1.60 -54.00,-1.60"/>
    </edge>
    <edge id="z2" from="gneJ0" to="gneJ6" priority="-1">
        <lane id="z2_0" index="0" speed="13.89" length="26.00" shape="-46.00,-14.40 -20.00,-14.40"/>
        <lane id="z2_1" index="1" speed="13.89" length="26.00" shape="-46.00,-11.20 -20.00,-11.20"/>
        <lane id="z2_2" index="2" speed="13.89" length="26.00" shape="-46.00,-8.00 -20.00,-8.00"/>
        <lane id="z2_3" index="3" speed="13.89" length="26.00" shape="-46.00,-4.80 -20.00,-4.80"/>
        <lane id="z2_4" index="4" speed="13.89" length="26.00" shape="-46.00,-1.60 -20.00,-1.60"/>
    </edge>

    <tlLogic id="gneJ6" type="static" programID="0" offset="0">
        <phase duration="33" state="GGGGGggsrrrrrGGGGggssrrrrr"/>
        <phase duration="3"  state="yyyyyggsrrrrryyyyggssrrrrr"/>
        <phase duration="6"  state="rrrrrGGsrrrrrrrrrGGssrrrrr"/>
        <phase duration="3"  state="rrrrryysrrrrrrrrryyssrrrrr"/>
        <phase duration="33" state="ssrrrrrGGGGggsrrrrrGGGGGgg"/>
        <phase duration="3"  state="ssrrrrryyyyggsrrrrryyyyygg"/>
        <phase duration="6"  state="ssrrrrrrrrrGGsrrrrrrrrrrGG"/>
        <phase duration="3"  state="ssrrrrrrrrryysrrrrrrrrrryy"/>
    </tlLogic>

    <junction id="gneJ0" type="priority" x="-50.00" y="0.00" incLanes="-z2_0 -z2_1 -z2_2 z1_0 z1_1 z1_2 z1_3" intLanes=":gneJ0_0_0 :gneJ0_0_1 :gneJ0_0_2 :gneJ0_0_3 :gneJ0_4_0 :gneJ0_4_1 :gneJ0_4_2 :gneJ0_4_3 :gneJ0_4_4" shape="-46.00,9.60 -46.00,-16.00 -49.03,-15.17 -50.97,-13.63 -52.21,-13.04 -54.00,-12.80 -54.00,12.80 -50.97,11.97 -49.03,10.43 -47.79,9.84">
        <request index="0" response="000000000" foes="000000000" cont="0"/>
        <request index="1" response="000000000" foes="000000000" cont="0"/>
        <request index="2" response="000000000" foes="000000000" cont="0"/>
        <request index="3" response="000000000" foes="000000000" cont="0"/>
        <request index="4" response="000000000" foes="000000000" cont="0"/>
        <request index="5" response="000000000" foes="000000000" cont="0"/>
        <request index="6" response="000000000" foes="000000000" cont="0"/>
        <request index="7" response="000000000" foes="000000000" cont="0"/>
        <request index="8" response="000000000" foes="000000000" cont="0"/>
    </junction>
    <junction id="gneJ1" type="priority" x="50.00" y="0.00" incLanes="y1_0 y1_1 y1_2 y1_3 -y2_0 -y2_1 -y2_2" intLanes=":gneJ1_0_0 :gneJ1_0_1 :gneJ1_0_2 :gneJ1_0_3 :gneJ1_0_4 :gneJ1_5_0 :gneJ1_5_1 :gneJ1_5_2 :gneJ1_5_3" shape="54.00,12.80 54.00,-12.80 50.97,-11.97 49.03,-10.43 47.79,-9.84 46.00,-9.60 46.00,16.00 49.03,15.17 50.97,13.63 52.21,13.04">
        <request index="0" response="000000000" foes="000000000" cont="0"/>
        <request index="1" response="000000000" foes="000000000" cont="0"/>
        <request index="2" response="000000000" foes="000000000" cont="0"/>
        <request index="3" response="000000000" foes="000000000" cont="0"/>
        <request index="4" response="000000000" foes="000000000" cont="0"/>
        <request index="5" response="000000000" foes="000000000" cont="0"/>
        <request index="6" response="000000000" foes="000000000" cont="0"/>
        <request index="7" response="000000000" foes="000000000" cont="0"/>
        <request index="8" response="000000000" foes="000000000" cont="0"/>
    </junction>
    <junction id="gneJ11" type="dead_end" x="-197.14" y="0.00" incLanes="-z1_0 -z1_1 -z1_2 -z1_3" intLanes="" shape="-197.14,0.00 -197.14,12.80 -197.14,0.00"/>
    <junction id="gneJ12" type="dead_end" x="150.00" y="0.00" incLanes="-y1_0 -y1_1 -y1_2 -y1_3" intLanes="" shape="150.00,0.00 150.00,-12.80 150.00,0.00"/>
    <junction id="gneJ16" type="dead_end" x="0.00" y="150.00" incLanes="-s1_0 -s1_1 -s1_2 -s1_3" intLanes="" shape="0.00,150.00 12.80,150.00 0.00,150.00"/>
    <junction id="gneJ2" type="priority" x="0.00" y="50.00" incLanes="s1_0 s1_1 s1_2 s1_3 -s2_0 -s2_1 -s2_2" intLanes=":gneJ2_0_0 :gneJ2_0_1 :gneJ2_0_2 :gneJ2_0_3 :gneJ2_0_4 :gneJ2_5_0 :gneJ2_5_1 :gneJ2_5_2 :gneJ2_5_3" shape="-12.80,54.00 12.80,54.00 11.97,50.97 10.43,49.03 9.84,47.79 9.60,46.00 -16.00,46.00 -15.17,49.03 -13.63,50.97 -13.04,52.21">
        <request index="0" response="000000000" foes="000000000" cont="0"/>
        <request index="1" response="000000000" foes="000000000" cont="0"/>
        <request index="2" response="000000000" foes="000000000" cont="0"/>
        <request index="3" response="000000000" foes="000000000" cont="0"/>
        <request index="4" response="000000000" foes="000000000" cont="0"/>
        <request index="5" response="000000000" foes="000000000" cont="0"/>
        <request index="6" response="000000000" foes="000000000" cont="0"/>
        <request index="7" response="000000000" foes="000000000" cont="0"/>
        <request index="8" response="000000000" foes="000000000" cont="0"/>
    </junction>
    <junction id="gneJ21" type="priority" x="0.00" y="-50.00" incLanes="-x2_0 -x2_1 -x2_2 x1_0 x1_1 x1_2 x1_3" intLanes=":gneJ21_0_0 :gneJ21_0_1 :gneJ21_0_2 :gneJ21_0_3 :gneJ21_4_0 :gneJ21_4_1 :gneJ21_4_2 :gneJ21_4_3 :gneJ21_4_4" shape="-9.60,-46.00 16.00,-46.00 15.17,-49.03 13.63,-50.97 13.04,-52.21 12.80,-54.00 -12.80,-54.00 -11.97,-50.97 -10.43,-49.03 -9.84,-47.79">
        <request index="0" response="000000000" foes="000000000" cont="0"/>
        <request index="1" response="000000000" foes="000000000" cont="0"/>
        <request index="2" response="000000000" foes="000000000" cont="0"/>
        <request index="3" response="000000000" foes="000000000" cont="0"/>
        <request index="4" response="000000000" foes="000000000" cont="0"/>
        <request index="5" response="000000000" foes="000000000" cont="0"/>
        <request index="6" response="000000000" foes="000000000" cont="0"/>
        <request index="7" response="000000000" foes="000000000" cont="0"/>
        <request index="8" response="000000000" foes="000000000" cont="0"/>
    </junction>
    <junction id="gneJ22" type="dead_end" x="0.00" y="-150.00" incLanes="-x1_0 -x1_1 -x1_2 -x1_3" intLanes="" shape="0.00,-150.00 -12.80,-150.00 0.00,-150.00"/>
    <junction id="gneJ6" type="traffic_light_right_on_red" x="0.00" y="0.00" incLanes="s2_0 s2_1 s2_2 s2_3 s2_4 y2_0 y2_1 y2_2 y2_3 y2_4 x2_0 x2_1 x2_2 x2_3 x2_4 z2_0 z2_1 z2_2 z2_3 z2_4" intLanes=":gneJ6_0_0 :gneJ6_0_1 :gneJ6_2_0 :gneJ6_2_1 :gneJ6_2_2 :gneJ6_26_0 :gneJ6_27_0 :gneJ6_7_0 :gneJ6_8_0 :gneJ6_8_1 :gneJ6_8_2 :gneJ6_28_0 :gneJ6_29_0 :gneJ6_13_0 :gneJ6_14_0 :gneJ6_14_1 :gneJ6_14_2 :gneJ6_30_0 :gneJ6_31_0 :gneJ6_19_0 :gneJ6_19_1 :gneJ6_21_0 :gneJ6_21_1 :gneJ6_21_2 :gneJ6_32_0 :gneJ6_33_0" shape="-16.00,20.00 9.60,20.00 10.76,17.78 12.20,17.00 14.22,16.44 16.82,16.11 20.00,16.00 20.00,-9.60 17.78,-10.76 17.00,-12.20 16.44,-14.22 16.11,-16.82 16.00,-20.00 -9.60,-20.00 -10.76,-17.78 -12.20,-17.00 -14.22,-16.44 -16.82,-16.11 -20.00,-16.00 -20.00,9.60 -17.78,10.76 -17.00,12.20 -16.44,14.22 -16.11,16.82" customShape="1">
        <request index="0"  response="00000000000000011100000000" foes="00000001100000011100000000" cont="0"/>
        <request index="1"  response="00000000000000011100000000" foes="00000001100000011100000000" cont="0"/>
        <request index="2"  response="11000000000001100000000000" foes="11111111100001111100000000" cont="0"/>
        <request index="3"  response="11000000000001100000000000" foes="11111111100001111100000000" cont="0"/>
        <request index="4"  response="11000000000001100000000000" foes="11111111100001111100000000" cont="0"/>
        <request index="5"  response="11000000011101100000000000" foes="11111000011101111100000000" cont="1"/>
        <request index="6"  response="11000000011101100000000000" foes="11111000011101111100000000" cont="1"/>
        <request index="7"  response="00000000011100000000000000" foes="00000000011100000000000000" cont="0"/>
        <request index="8"  response="00000001111100000001111111" foes="11000001111100000001111111" cont="0"/>
        <request index="9"  response="00000001111100000001111111" foes="11000001111100000001111111" cont="0"/>
        <request index="10" response="00000001111100000001111111" foes="11000001111100000001111111" cont="0"/>
        <request index="11" response="00111111111100000001111100" foes="00111111111100000001111100" cont="1"/>
        <request index="12" response="00111111111100000001111100" foes="00111111111100000001111100" cont="1"/>
        <request index="13" response="00111000000000000000000000" foes="00111000000000000000000000" cont="0"/>
        <request index="14" response="11000000000001100000000000" foes="11111000000001111111100000" cont="0"/>
        <request index="15" response="11000000000001100000000000" foes="11111000000001111111100000" cont="0"/>
        <request index="16" response="11000000000001100000000000" foes="11111000000001111111100000" cont="0"/>
        <request index="17" response="11000000000001100000011111" foes="11111000000001111100011111" cont="1"/>
        <request index="18" response="11000000000001100000011111" foes="11111000000001111100011111" cont="1"/>
        <request index="19" response="00000000000000000000011100" foes="00000000000001100000011100" cont="0"/>
        <request index="20" response="00000000000000000000011100" foes="00000000000001100000011100" cont="0"/>
        <request index="21" response="00000001111110000001111100" foes="00000001111111100001111100" cont="0"/>
        <request index="22" response="00000001111110000001111100" foes="00000001111111100001111100" cont="0"/>
        <request index="23" response="00000001111110000001111100" foes="00000001111111100001111100" cont="0"/>
        <request index="24" response="00000001111100011101111100" foes="00000001111100011101111100" cont="1"/>
        <request index="25" response="00000001111100011101111100" foes="00000001111100011101111100" cont="1"/>
    </junction>

    <junction id=":gneJ6_26_0" type="internal" x="1.06" y="6.64" incLanes=":gneJ6_5_0 x2_0 x2_1 x2_2 x2_3" intLanes=":gneJ6_8_0 :gneJ6_8_1 :gneJ6_8_2 :gneJ6_11_0 :gneJ6_11_1 :gneJ6_13_0 :gneJ6_14_0 :gneJ6_14_1 :gneJ6_14_2 :gneJ6_21_0 :gneJ6_21_1 :gneJ6_21_2 :gneJ6_24_0 :gneJ6_24_1"/>
    <junction id=":gneJ6_27_0" type="internal" x="0.90" y="8.63" incLanes=":gneJ6_5_1 x2_0 x2_1 x2_2 x2_3" intLanes=":gneJ6_8_0 :gneJ6_8_1 :gneJ6_8_2 :gneJ6_11_0 :gneJ6_11_1 :gneJ6_13_0 :gneJ6_14_0 :gneJ6_14_1 :gneJ6_14_2 :gneJ6_21_0 :gneJ6_21_1 :gneJ6_21_2 :gneJ6_24_0 :gneJ6_24_1"/>
    <junction id=":gneJ6_28_0" type="internal" x="6.64" y="-1.06" incLanes=":gneJ6_11_0 z2_0 z2_1 z2_2 z2_3" intLanes=":gneJ6_2_0 :gneJ6_2_1 :gneJ6_2_2 :gneJ6_5_0 :gneJ6_5_1 :gneJ6_14_0 :gneJ6_14_1 :gneJ6_14_2 :gneJ6_17_0 :gneJ6_17_1 :gneJ6_19_0 :gneJ6_19_1 :gneJ6_21_0 :gneJ6_21_1 :gneJ6_21_2"/>
    <junction id=":gneJ6_29_0" type="internal" x="8.63" y="-0.90" incLanes=":gneJ6_11_1 z2_0 z2_1 z2_2 z2_3" intLanes=":gneJ6_2_0 :gneJ6_2_1 :gneJ6_2_2 :gneJ6_5_0 :gneJ6_5_1 :gneJ6_14_0 :gneJ6_14_1 :gneJ6_14_2 :gneJ6_17_0 :gneJ6_17_1 :gneJ6_19_0 :gneJ6_19_1 :gneJ6_21_0 :gneJ6_21_1 :gneJ6_21_2"/>
    <junction id=":gneJ6_30_0" type="internal" x="-1.06" y="-6.64" incLanes=":gneJ6_17_0 s2_0 s2_1 s2_2 s2_3" intLanes=":gneJ6_0_0 :gneJ6_0_1 :gneJ6_2_0 :gneJ6_2_1 :gneJ6_2_2 :gneJ6_8_0 :gneJ6_8_1 :gneJ6_8_2 :gneJ6_11_0 :gneJ6_11_1 :gneJ6_21_0 :gneJ6_21_1 :gneJ6_21_2 :gneJ6_24_0 :gneJ6_24_1"/>