<routes>
    <vType id="xiaokeche" vClass = "taxi" accei = "0.4" decel = "4.5"
     length = "4" callFollowMode="carFollowing-W99" departSpeed = "max" maxSpeed="20" 
    actionStepLength="1"  laneChangeModel="SL2015" cc1="1.1"/>

    <vType id="dakeche" vClass = "hov" accei = "0.4" decel = "4.5"  length = "11"
      callFollowMode="carFollowing-W99" departSpeed = "max" maxSpeed="20" 
    actionStepLength="1"  laneChangeModel="SL2015" lcStrategic="1000" cc1="1.1"/>

   <vType id="xiaoxinghuoche" vClass = "truck" accei = "0.4" decel = "4.5"   length = "6"
      callFollowMode="carFollowing-W99" departSpeed = "max" maxSpeed="20" 
    actionStepLength="1"  laneChangeModel="SL2015" lcStrategic="1000" cc1="1.1"/>

    <vType id="zhongxinghuoche" vClass = "truck" accei = "0.4" decel = "4.5"
     length = "9.6" callFollowMode="carFollowing-W99" departSpeed = "max" maxSpeed="20" 
    actionStepLength="1"  laneChangeModel="SL2015" cc1="1.1"/>

    <vType id="daxinghuoche" vClass = "truck" accei = "0.4" decel = "4.5"  length = "13"
     callFollowMode="carFollowing-W99" departSpeed = "max" maxSpeed="20" 
    actionStepLength="1"  laneChangeModel="SL2015" lcStrategic="1000" cc1="1.1"/>

   <vType id="tedaxinghuoche" vClass = "trailer" accei = "0.4" decel = "4.5"   length = "16"
     callFollowMode="carFollowing-W99" departSpeed = "max" maxSpeed="20" 
    actionStepLength="1"  laneChangeModel="SL2015" lcStrategic="1000" cc1="1.1"/>

    <route id="route1" color="1,1,0" edges="main1"/>

   <flow id="xiaokeche_mainlane0_" color="0,1,0" begin="0" end="7200" vehsPerHour="1500" type="xiaokeche" departLane='0'
      from = "main0" to = "main1" />
    
    <flow id="xiaokeche_mainlane1_" color="0,1,0" begin="0" end="7200" vehsPerHour="1500" type="xiaokeche" departLane ='1'
      from = "main0" to = "main1" />
    
    <flow id="xiaokeche_mainlane2_" color="0,1,0" begin="0" end="7200" vehsPerHour="1500" type="xiaokeche" departLane ='2'
      from = "main0" to = "main1" />
    
    <flow id="xiaokeche_mainlane3_" color="0,1,0" begin="0" end="7200" vehsPerHour="1500" type="xiaokeche" departLane ='3'
      from = "main0" to = "main1" />
    
    <flow id="xiaokeche_mainlane4_" color="0,1,0" begin="0" end="7200" vehsPerHour="1500" type="xiaokeche" departLane ='4'
      from = "main0" to = "main1" />

</routes> 