<?xml version="1.0" encoding="UTF-8"?>

<!-- generated on 10/31/21 17:43:26 by Eclipse SUMO netedit Version 1.8.0
<configuration xmlns:xsi="http://www.w3.org/2001/XMLSchema-instance" xsi:noNamespaceSchemaLocation="http://sumo.dlr.de/xsd/netconvertConfiguration.xsd">

    <input>
        <sumo-net-file value="F:\software%20two\sumo-1.8.0\guangshen_pro\zhangshijie.net.xml"/>
    </input>

    <output>
        <output-file value="F:\software%20two\sumo-1.8.0\guangshen_pro\zhangshijie.net.xml"/>
    </output>

    <processing>
        <geometry.min-radius.fix.railways value="false"/>
        <geometry.max-grade.fix value="false"/>
        <offset.disable-normalization value="true"/>
        <lefthand value="false"/>
    </processing>

    <junctions>
        <no-internal-links value="true"/>
        <no-turnarounds value="true"/>
        <junctions.corner-detail value="5"/>
        <junctions.limit-turn-speed value="5.5"/>
        <rectangular-lane-cut value="false"/>
    </junctions>

    <pedestrian>
        <walkingareas value="false"/>
    </pedestrian>

    <report>
        <aggregate-warnings value="5"/>
    </report>

</configuration>
-->

<net version="1.6" junctionCornerDetail="5" limitTurnSpeed="5.50" xmlns:xsi="http://www.w3.org/2001/XMLSchema-instance" xsi:noNamespaceSchemaLocation="http://sumo.dlr.de/xsd/net_file.xsd">

    <location netOffset="0.00,0.00" convBoundary="0.00,0.00,100.00,0.00" origBoundary="-10000000000.00,-10000000000.00,10000000000.00,10000000000.00" projParameter="!"/>

    <edge id="H" from="gneJ0" to="gneJ1" priority="-1">
        <lane id="H_0" index="0" speed="13.89" length="100.00" shape="0.00,-14.40 100.00,-14.40"/>
        <lane id="H_1" index="1" speed="13.89" length="100.00" shape="0.00,-11.20 100.00,-11.20"/>
        <lane id="H_2" index="2" speed="13.89" length="100.00" shape="0.00,-8.00 100.00,-8.00"/>
        <lane id="H_3" index="3" speed="13.89" length="100.00" shape="0.00,-4.80 100.00,-4.80"/>
        <lane id="H_4" index="4" speed="13.89" length="100.00" shape="0.00,-1.60 100.00,-1.60"/>
    </edge>

    <junction id="gneJ0" type="dead_end" x="0.00" y="0.00" incLanes="" intLanes="" shape="0.00,0.00 0.00,-16.00"/>
    <junction id="gneJ1" type="dead_end" x="100.00" y="0.00" incLanes="H_0 H_1 H_2 H_3 H_4" intLanes="" shape="100.00,-16.00 100.00,0.00"/>

</net>
